Version 4
SHEET 1 880 680
WIRE 16 64 0 64
WIRE 240 64 96 64
WIRE 480 64 240 64
WIRE 608 64 480 64
WIRE 704 64 608 64
WIRE 240 112 240 64
WIRE 480 160 480 64
WIRE 608 160 608 64
WIRE 704 176 704 64
WIRE 0 208 0 64
WIRE 240 208 240 192
WIRE 240 208 176 208
WIRE 304 208 240 208
WIRE 240 240 240 208
WIRE 176 256 176 208
WIRE 416 256 416 240
WIRE 480 256 480 240
WIRE 480 256 416 256
WIRE 608 256 608 240
WIRE 304 336 304 208
WIRE 0 384 0 288
WIRE 176 384 176 320
WIRE 176 384 0 384
WIRE 240 384 240 320
WIRE 240 384 176 384
WIRE 288 384 240 384
WIRE 480 384 480 320
WIRE 480 384 384 384
WIRE 608 384 608 320
WIRE 608 384 480 384
WIRE 704 384 704 256
WIRE 704 384 608 384
WIRE 0 400 0 384
FLAG 0 400 0
FLAG 304 208 gate
FLAG 416 240 BuckCap
SYMBOL voltage 0 192 R0
WINDOW 123 0 0 Left 0
WINDOW 39 0 0 Left 0
WINDOW 3 22 110 Left 2
SYMATTR Value 30V
SYMATTR InstName V1
SYMBOL cap 464 256 R0
SYMATTR InstName C1
SYMATTR Value 10.1µ
SYMBOL res 464 144 R0
SYMATTR InstName ESR1
SYMATTR Value 2m
SYMBOL res 0 80 R270
WINDOW 0 32 56 VTop 2
WINDOW 3 0 56 VBottom 2
SYMATTR InstName Rbat
SYMATTR Value 1p
SYMBOL res 592 144 R0
SYMATTR InstName ESR2
SYMATTR Value 2m
SYMBOL cap 592 256 R0
SYMATTR InstName C2
SYMATTR Value 10.1µ
SYMBOL cap 160 256 R0
SYMATTR InstName C3
SYMATTR Value 10µ
SYMBOL res 224 96 R0
SYMATTR InstName R1
SYMATTR Value 51k
SYMBOL res 224 224 R0
SYMATTR InstName R2
SYMATTR Value 100k
SYMBOL nmos 384 336 R90
SYMATTR InstName M1
SYMATTR Value IRLHS6342
SYMBOL res 688 160 R0
SYMATTR InstName R3
SYMATTR Value 1k
TEXT 400 -8 Left 2 !.tran 1 startup
RECTANGLE Normal 672 416 448 48 2
