Version 4
SHEET 1 880 680
WIRE 16 64 0 64
WIRE 112 64 96 64
WIRE 208 64 192 64
WIRE 336 64 208 64
WIRE 208 96 208 64
WIRE 336 96 336 64
WIRE 0 144 0 64
WIRE 208 192 208 176
WIRE 336 192 336 176
WIRE 0 272 0 224
WIRE 208 272 208 256
WIRE 208 272 0 272
WIRE 336 272 336 256
WIRE 336 272 208 272
WIRE 0 288 0 272
FLAG 0 288 0
SYMBOL voltage 0 128 R0
WINDOW 123 0 0 Left 0
WINDOW 39 0 0 Left 0
SYMATTR InstName V1
SYMATTR Value PULSE(0 30 0 1p 1p 100 0 0)
SYMBOL cap 192 192 R0
SYMATTR InstName C1
SYMATTR Value 10.1µ
SYMBOL res 192 80 R0
SYMATTR InstName ESR1
SYMATTR Value 2m
SYMBOL res 96 80 R270
WINDOW 0 32 56 VTop 2
WINDOW 3 0 56 VBottom 2
SYMATTR InstName Rseries
SYMATTR Value 10
SYMBOL res 112 48 R90
WINDOW 0 0 56 VBottom 2
WINDOW 3 32 56 VTop 2
SYMATTR InstName Rbat
SYMATTR Value 1p
SYMBOL res 320 80 R0
SYMATTR InstName ESR2
SYMATTR Value 2m
SYMBOL cap 320 192 R0
SYMATTR InstName C2
SYMATTR Value 10.1µ
TEXT 424 80 Left 2 !.tran 4m
